@<TRIPOS>MOLECULE
UNK
   54    56     1     0     0
SMALL
No Charge or Current Charge


@<TRIPOS>ATOM
      1 O1          -3.2710     0.3480     1.6230 OS         1 UNK       -0.331185
      2 C1          -3.2410    -0.9610     1.0300 CT         1 UNK        0.095003
      3 N1          -2.0530    -1.0970     0.1830 N*         1 UNK       -0.215775
      4 C2          -1.1650    -0.0630     0.0870 CM         1 UNK        0.061890
      5 H1          -1.3330     0.8550     0.6310 H4         1 UNK        0.175959
      6 C3          -0.0680    -0.2030    -0.7020 CM         1 UNK       -0.159853
      7 N2           0.8640     0.8410    -0.8220 N2         1 UNK       -0.552428
      8 H2           0.5980     1.6850    -1.2180 H          1 UNK        0.402900
      9 C4           2.1670     0.6640    -0.3730 CA         1 UNK        0.321430
     10 C5           3.0810     1.7330    -0.4280 CA         1 UNK       -0.292439
     11 C6           2.6570     3.0360    -0.9580 C          1 UNK        0.710527
     12 O2           1.4960     3.2220    -1.2530 O          1 UNK       -0.549666
     13 C7           3.6660     4.1410    -1.1360 CT         1 UNK       -0.517874
     14 H3           4.6290     3.8220    -0.7380 HC         1 UNK        0.110082
     15 H4           3.7700     4.3720    -2.1960 HC         1 UNK        0.148095
     16 H5           3.3290     5.0300    -0.6020 HC         1 UNK        0.157197
     17 C8           4.3920     1.5550     0.0240 CA         1 UNK       -0.242021
     18 H6           5.0930     2.3750    -0.0170 HA         1 UNK        0.157601
     19 C9           4.7910     0.3270     0.5240 CA         1 UNK        0.395159
     20 N3           6.0950     0.1500     0.9730 N2         1 UNK       -0.932606
     21 H7           6.6950     0.9100     1.0320 H          1 UNK        0.390304
     22 H8           6.4050    -0.7340     1.2280 H          1 UNK        0.437695
     23 C10          3.8770    -0.7420     0.5790 CA         1 UNK       -0.261498
     24 C11          4.3010    -2.0450     1.1100 C          1 UNK        0.715344
     25 O3           5.4070    -2.1730     1.5910 O          1 UNK       -0.535960
     26 C12          3.3620    -3.2220     1.0570 CT         1 UNK       -0.565559
     27 H9           2.4610    -2.9440     0.5110 HC         1 UNK        0.142896
     28 H10          3.8510    -4.0550     0.5510 HC         1 UNK        0.154312
     29 H11          3.0950    -3.5200     2.0710 HC         1 UNK        0.169710
     30 C13          2.5660    -0.5630     0.1330 CA         1 UNK       -0.163326
     31 H12          1.8640    -1.3830     0.1750 HA         1 UNK        0.096909
     32 C14          0.1210    -1.4200    -1.4000 CA         1 UNK        0.744039
     33 N4           1.2230    -1.5920    -2.2070 N2         1 UNK       -0.907879
     34 H13          1.9050    -0.9030    -2.2490 H          1 UNK        0.374102
     35 H14          1.3180    -2.4020    -2.7320 H          1 UNK        0.423448
     36 N5          -0.7710    -2.3930    -1.2730 NC         1 UNK       -0.733859
     37 C15         -1.8380    -2.2420    -0.4910 C          1 UNK        0.810260
     38 O4          -2.6420    -3.1540    -0.3920 O          1 UNK       -0.604781
     39 H15         -3.2280    -1.7220     1.8100 H2         1 UNK        0.110574
     40 C16         -4.5140    -1.1050     0.1730 CT         1 UNK        0.225538
     41 O5          -4.1720    -1.3590    -1.1910 OH         1 UNK       -0.533125
     42 H16         -4.9360    -1.4580    -1.7760 HO         1 UNK        0.419781
     43 H17         -5.1470    -1.9030     0.5620 H1         1 UNK        0.037569
     44 C17         -5.2200     0.2660     0.3090 CT         1 UNK        0.125800
     45 O6          -5.7590     0.6880    -0.9450 OH         1 UNK       -0.652328
     46 H18         -6.2110     1.5420    -0.9110 HO         1 UNK        0.429754
     47 H19         -5.9970     0.2290     1.0720 H1         1 UNK        0.033894
     48 C18         -4.0550     1.1880     0.7500 CT         1 UNK        0.061361
     49 C19         -4.5890     2.4050     1.5090 CT         1 UNK        0.150717
     50 O7          -3.5100     3.2950     1.8020 OH         1 UNK       -0.603947
     51 H20         -3.7760     4.0900     2.2830 HO         1 UNK        0.408103
     52 H21         -5.3290     2.9190     0.8970 H1         1 UNK        0.008454
     53 H22         -5.0520     2.0770     2.4400 H1         1 UNK        0.038060
     54 H23         -3.4660     1.5010    -0.1130 H1         1 UNK        0.111638
@<TRIPOS>BOND
     1     1     2 1   
     2     1    48 1   
     3     2     3 1   
     4     2    39 1   
     5     2    40 1   
     6     3     4 1   
     7     3    37 1   
     8     4     5 1   
     9     4     6 2   
    10     6     7 1   
    11     6    32 1   
    12     7     8 1   
    13     7     9 1   
    14     9    10 1   
    15     9    30 2   
    16    10    11 1   
    17    10    17 2   
    18    11    12 2   
    19    11    13 1   
    20    13    14 1   
    21    13    15 1   
    22    13    16 1   
    23    17    18 1   
    24    17    19 1   
    25    19    20 1   
    26    19    23 2   
    27    20    21 1   
    28    20    22 1   
    29    23    24 1   
    30    23    30 1   
    31    24    25 2   
    32    24    26 1   
    33    26    27 1   
    34    26    28 1   
    35    26    29 1   
    36    30    31 1   
    37    32    33 1   
    38    32    36 2   
    39    33    34 1   
    40    33    35 1   
    41    36    37 1   
    42    37    38 2   
    43    40    41 1   
    44    40    43 1   
    45    40    44 1   
    46    41    42 1   
    47    44    45 1   
    48    44    47 1   
    49    44    48 1   
    50    45    46 1   
    51    48    49 1   
    52    48    54 1   
    53    49    50 1   
    54    49    52 1   
    55    49    53 1   
    56    50    51 1   
@<TRIPOS>SUBSTRUCTURE
     1 UNK         1 TEMP              0 ****  ****    0 ROOT
